/*--------------------------------*- C++ -*----------------------------------*\
| =========                 |                                                 |
| \\      /  F ield         | OpenFOAM: The Open Source CFD Toolbox           |
|  \\    /   O peration     | Version:  v2206                                 |
|   \\  /    A nd           | Website:  www.openfoam.com                      |
|    \\/     M anipulation  |                                                 |
\*---------------------------------------------------------------------------*/
FoamFile
{
    version     2.0;
    format      ascii;
    class       volScalarField;
    object      Ue;
}
// * * * * * * * * * * * * * * * * * * * * * * * * * * * * * * * * * * * * * //

dimensions      [1 2 -3 0 0 -1 0];

internalField   uniform -0.42;

boundaryField
{
    PE
    {
	type		zeroGradient;
    }
    DI
    {
	type		zeroGradient;
    }
    NE
    {
	type		zeroGradient;
    }

    INLET
    {
    	type		zeroGradient;
    }
    OUTLET
    {
        type            zeroGradient;
    }

    frontAndBack
    {
	type		empty;
    }

}


// ************************************************************************* //
